<?xml version="1.0" encoding="UTF-8"?>
<configuration>
  <input>
    <net-file value="network.net.xml"/>
    <route-files value="network.rou.xml"/>
    <gui-settings-file value="network.settings.xml"/>
  </input>
  <time>
    <begin value="0"/>
    <end value="100"/>
  </time>
</configuration>
