<?xml version="1.0" encoding="UTF-8"?>

<!-- generated on 09/13/18 09:42:34 by Eclipse SUMO netedit Version 1.0.0
<configuration xmlns:xsi="http://www.w3.org/2001/XMLSchema-instance" xsi:noNamespaceSchemaLocation="http://sumo.dlr.de/xsd/netconvertConfiguration.xsd">

    <input>
        <sumo-net-file value=".\network.net.xml"/>
    </input>

    <output>
        <output-file value=".\network.net.xml"/>
    </output>

    <processing>
        <offset.disable-normalization value="true"/>
        <lefthand value="false"/>
    </processing>

    <junctions>
        <no-turnarounds value="true"/>
        <junctions.corner-detail value="0"/>
        <junctions.limit-turn-speed value="-1"/>
        <rectangular-lane-cut value="false"/>
    </junctions>

    <pedestrian>
        <walkingareas value="false"/>
    </pedestrian>

</configuration>
-->

<net version="1.0" xmlns:xsi="http://www.w3.org/2001/XMLSchema-instance" xsi:noNamespaceSchemaLocation="http://sumo.dlr.de/xsd/net_file.xsd">

    <location netOffset="0.00,0.00" convBoundary="0.00,50.00,100.00,100.00" origBoundary="-10000000000.00,-10000000000.00,10000000000.00,10000000000.00" projParameter="!"/>

    <edge id=":leftBottom_0" function="internal">
        <lane id=":leftBottom_0_0" index="0" speed="13.89" length="7.74" shape="-1.60,53.20 -1.30,51.10 -0.40,49.60 1.10,48.70 3.20,48.40"/>
    </edge>
    <edge id=":leftBottom_1" function="internal">
        <lane id=":leftBottom_1_0" index="0" speed="13.89" length="2.58" shape="3.20,51.60 2.50,51.70 2.00,52.00 1.70,52.50 1.60,53.20"/>
    </edge>
    <edge id=":leftTop_0" function="internal">
        <lane id=":leftTop_0_0" index="0" speed="13.89" length="7.74" shape="3.20,101.60 1.10,101.30 -0.40,100.40 -1.30,98.90 -1.60,96.80"/>
    </edge>
    <edge id=":leftTop_1" function="internal">
        <lane id=":leftTop_1_0" index="0" speed="13.89" length="2.58" shape="1.60,96.80 1.70,97.50 2.00,98.00 2.50,98.30 3.20,98.40"/>
    </edge>
    <edge id=":middleBottom_0" function="internal">
        <lane id=":middleBottom_0_0" index="0" speed="13.89" length="9.03" shape="48.40,57.20 48.05,54.75 47.00,53.00 45.25,51.95 42.80,51.60"/>
    </edge>
    <edge id=":middleBottom_1" function="internal">
        <lane id=":middleBottom_1_0" index="0" speed="13.89" length="14.19" shape="48.40,57.20 48.95,53.35 50.60,50.60 53.35,48.95 57.20,48.40"/>
    </edge>
    <edge id=":middleBottom_2" function="internal">
        <lane id=":middleBottom_2_0" index="0" speed="13.89" length="9.03" shape="57.20,51.60 54.75,51.95 53.00,53.00 51.95,54.75 51.60,57.20"/>
    </edge>
    <edge id=":middleBottom_3" function="internal">
        <lane id=":middleBottom_3_0" index="0" speed="13.89" length="14.40" shape="57.20,51.60 42.80,51.60"/>
    </edge>
    <edge id=":middleBottom_4" function="internal">
        <lane id=":middleBottom_4_0" index="0" speed="13.89" length="14.40" shape="42.80,48.40 57.20,48.40"/>
    </edge>
    <edge id=":middleBottom_5" function="internal">
        <lane id=":middleBottom_5_0" index="0" speed="13.89" length="14.19" shape="42.80,48.40 46.65,48.95 49.40,50.60 51.05,53.35 51.60,57.20"/>
    </edge>
    <edge id=":middleTop_0" function="internal">
        <lane id=":middleTop_0_0" index="0" speed="13.89" length="14.40" shape="57.20,101.60 42.80,101.60"/>
    </edge>
    <edge id=":middleTop_1" function="internal">
        <lane id=":middleTop_1_0" index="0" speed="13.89" length="5.93" shape="57.20,101.60 53.35,101.05 51.60,100.00"/>
    </edge>
    <edge id=":middleTop_6" function="internal">
        <lane id=":middleTop_6_0" index="0" speed="13.89" length="8.26" shape="51.60,100.00 50.60,99.40 48.95,96.65 48.40,92.80"/>
    </edge>
    <edge id=":middleTop_2" function="internal">
        <lane id=":middleTop_2_0" index="0" speed="13.89" length="9.03" shape="51.60,92.80 51.95,95.25 53.00,97.00 54.75,98.05 57.20,98.40"/>
    </edge>
    <edge id=":middleTop_3" function="internal">
        <lane id=":middleTop_3_0" index="0" speed="13.89" length="14.19" shape="51.60,92.80 51.05,96.65 49.40,99.40 46.65,101.05 42.80,101.60"/>
    </edge>
    <edge id=":middleTop_4" function="internal">
        <lane id=":middleTop_4_0" index="0" speed="13.89" length="9.03" shape="42.80,98.40 45.25,98.05 47.00,97.00 48.05,95.25 48.40,92.80"/>
    </edge>
    <edge id=":middleTop_5" function="internal">
        <lane id=":middleTop_5_0" index="0" speed="13.89" length="14.40" shape="42.80,98.40 57.20,98.40"/>
    </edge>
    <edge id=":rightBottom_0" function="internal">
        <lane id=":rightBottom_0_0" index="0" speed="13.89" length="2.58" shape="98.40,53.20 98.30,52.50 98.00,52.00 97.50,51.70 96.80,51.60"/>
    </edge>
    <edge id=":rightBottom_1" function="internal">
        <lane id=":rightBottom_1_0" index="0" speed="13.89" length="7.74" shape="96.80,48.40 98.90,48.70 100.40,49.60 101.30,51.10 101.60,53.20"/>
    </edge>
    <edge id=":rightTop_0" function="internal">
        <lane id=":rightTop_0_0" index="0" speed="13.89" length="7.74" shape="101.60,96.80 101.30,98.90 100.40,100.40 98.90,101.30 96.80,101.60"/>
    </edge>
    <edge id=":rightTop_1" function="internal">
        <lane id=":rightTop_1_0" index="0" speed="13.89" length="2.58" shape="96.80,98.40 97.50,98.30 98.00,98.00 98.30,97.50 98.40,96.80"/>
    </edge>

    <edge id="leftBottom_to_leftTop" from="leftBottom" to="leftTop" priority="1">
        <lane id="leftBottom_to_leftTop_0" index="0" speed="13.89" length="43.60" shape="1.60,53.20 1.60,96.80"/>
    </edge>
    <edge id="leftBottom_to_middleBottom" from="leftBottom" to="middleBottom" priority="1">
        <lane id="leftBottom_to_middleBottom_0" index="0" speed="13.89" length="39.60" shape="3.20,48.40 42.80,48.40"/>
    </edge>
    <edge id="leftTop_to_leftBottom" from="leftTop" to="leftBottom" priority="1">
        <lane id="leftTop_to_leftBottom_0" index="0" speed="13.89" length="43.60" shape="-1.60,96.80 -1.60,53.20"/>
    </edge>
    <edge id="leftTop_to_middleTop" from="leftTop" to="middleTop" priority="1">
        <lane id="leftTop_to_middleTop_0" index="0" speed="13.89" length="39.60" shape="3.20,98.40 42.80,98.40"/>
    </edge>
    <edge id="middleBottom_to_leftBottom" from="middleBottom" to="leftBottom" priority="1">
        <lane id="middleBottom_to_leftBottom_0" index="0" speed="13.89" length="39.60" shape="42.80,51.60 3.20,51.60"/>
    </edge>
    <edge id="middleBottom_to_middleTop" from="middleBottom" to="middleTop" priority="1">
        <lane id="middleBottom_to_middleTop_0" index="0" speed="13.89" length="35.60" shape="51.60,57.20 51.60,92.80"/>
    </edge>
    <edge id="middleBottom_to_rightBottom" from="middleBottom" to="rightBottom" priority="1">
        <lane id="middleBottom_to_rightBottom_0" index="0" speed="13.89" length="39.60" shape="57.20,48.40 96.80,48.40"/>
    </edge>
    <edge id="middleTop_to_leftTop" from="middleTop" to="leftTop" priority="1">
        <lane id="middleTop_to_leftTop_0" index="0" speed="13.89" length="39.60" shape="42.80,101.60 3.20,101.60"/>
    </edge>
    <edge id="middleTop_to_middleBottom" from="middleTop" to="middleBottom" priority="1">
        <lane id="middleTop_to_middleBottom_0" index="0" speed="13.89" length="35.60" shape="48.40,92.80 48.40,57.20"/>
    </edge>
    <edge id="middleTop_to_rightTop" from="middleTop" to="rightTop" priority="1">
        <lane id="middleTop_to_rightTop_0" index="0" speed="13.89" length="39.60" shape="57.20,98.40 96.80,98.40"/>
    </edge>
    <edge id="rightBottom_to_middleBottom" from="rightBottom" to="middleBottom" priority="1">
        <lane id="rightBottom_to_middleBottom_0" index="0" speed="13.89" length="39.60" shape="96.80,51.60 57.20,51.60"/>
    </edge>
    <edge id="rightBottom_to_rightTop" from="rightBottom" to="rightTop" priority="1">
        <lane id="rightBottom_to_rightTop_0" index="0" speed="13.89" length="43.60" shape="101.60,53.20 101.60,96.80"/>
    </edge>
    <edge id="rightTop_to_middleTop" from="rightTop" to="middleTop" priority="1">
        <lane id="rightTop_to_middleTop_0" index="0" speed="13.89" length="39.60" shape="96.80,101.60 57.20,101.60"/>
    </edge>
    <edge id="rightTop_to_rightBottom" from="rightTop" to="rightBottom" priority="1">
        <lane id="rightTop_to_rightBottom_0" index="0" speed="13.89" length="43.60" shape="98.40,96.80 98.40,53.20"/>
    </edge>

    <junction id="leftBottom" type="priority" x="0.00" y="50.00" incLanes="leftTop_to_leftBottom_0 middleBottom_to_leftBottom_0" intLanes=":leftBottom_0_0 :leftBottom_1_0" shape="-3.20,53.20 3.20,53.20 3.20,46.80">
        <request index="0" response="00" foes="00" cont="0"/>
        <request index="1" response="00" foes="00" cont="0"/>
    </junction>
    <junction id="leftTop" type="priority" x="0.00" y="100.00" incLanes="middleTop_to_leftTop_0 leftBottom_to_leftTop_0" intLanes=":leftTop_0_0 :leftTop_1_0" shape="3.20,103.20 3.20,96.80 -3.20,96.80">
        <request index="0" response="00" foes="00" cont="0"/>
        <request index="1" response="00" foes="00" cont="0"/>
    </junction>
    <junction id="middleBottom" type="right_before_left" x="50.00" y="50.00" incLanes="middleTop_to_middleBottom_0 rightBottom_to_middleBottom_0 leftBottom_to_middleBottom_0" intLanes=":middleBottom_0_0 :middleBottom_1_0 :middleBottom_2_0 :middleBottom_3_0 :middleBottom_4_0 :middleBottom_5_0" shape="46.80,57.20 53.20,57.20 57.20,53.20 57.20,46.80 42.80,46.80 42.80,53.20">
        <request index="0" response="000000" foes="001000" cont="0"/>
        <request index="1" response="110000" foes="111000" cont="0"/>
        <request index="2" response="000000" foes="100000" cont="0"/>
        <request index="3" response="000011" foes="100011" cont="0"/>
        <request index="4" response="000000" foes="000010" cont="0"/>
        <request index="5" response="001100" foes="001110" cont="0"/>
    </junction>
    <junction id="middleTop" type="priority" x="50.00" y="100.00" incLanes="rightTop_to_middleTop_0 middleBottom_to_middleTop_0 leftTop_to_middleTop_0" intLanes=":middleTop_0_0 :middleTop_6_0 :middleTop_2_0 :middleTop_3_0 :middleTop_4_0 :middleTop_5_0" shape="57.20,103.20 57.20,96.80 53.20,92.80 46.80,92.80 42.80,96.80 42.80,103.20">
        <request index="0" response="000000" foes="001000" cont="0"/>
        <request index="1" response="110000" foes="111000" cont="1"/>
        <request index="2" response="100000" foes="100000" cont="0"/>
        <request index="3" response="100011" foes="100011" cont="0"/>
        <request index="4" response="000000" foes="000010" cont="0"/>
        <request index="5" response="000000" foes="001110" cont="0"/>
    </junction>
    <junction id="rightBottom" type="priority" x="100.00" y="50.00" incLanes="rightTop_to_rightBottom_0 middleBottom_to_rightBottom_0" intLanes=":rightBottom_0_0 :rightBottom_1_0" shape="96.80,53.20 103.20,53.20 96.80,46.80">
        <request index="0" response="00" foes="00" cont="0"/>
        <request index="1" response="00" foes="00" cont="0"/>
    </junction>
    <junction id="rightTop" type="priority" x="100.00" y="100.00" incLanes="rightBottom_to_rightTop_0 middleTop_to_rightTop_0" intLanes=":rightTop_0_0 :rightTop_1_0" shape="103.20,96.80 96.80,96.80 96.80,103.20">
        <request index="0" response="00" foes="00" cont="0"/>
        <request index="1" response="00" foes="00" cont="0"/>
    </junction>

    <junction id=":middleTop_6_0" type="internal" x="51.60" y="100.00" incLanes=":middleTop_1_0 leftTop_to_middleTop_0" intLanes=":middleTop_3_0 :middleTop_4_0 :middleTop_5_0"/>

    <connection from="leftBottom_to_leftTop" to="leftTop_to_middleTop" fromLane="0" toLane="0" via=":leftTop_1_0" dir="r" state="M"/>
    <connection from="leftBottom_to_middleBottom" to="middleBottom_to_rightBottom" fromLane="0" toLane="0" via=":middleBottom_4_0" dir="s" state="="/>
    <connection from="leftBottom_to_middleBottom" to="middleBottom_to_middleTop" fromLane="0" toLane="0" via=":middleBottom_5_0" dir="l" state="="/>
    <connection from="leftTop_to_leftBottom" to="leftBottom_to_middleBottom" fromLane="0" toLane="0" via=":leftBottom_0_0" dir="l" state="M"/>
    <connection from="leftTop_to_middleTop" to="middleTop_to_middleBottom" fromLane="0" toLane="0" via=":middleTop_4_0" dir="r" state="M"/>
    <connection from="leftTop_to_middleTop" to="middleTop_to_rightTop" fromLane="0" toLane="0" via=":middleTop_5_0" dir="s" state="M"/>
    <connection from="middleBottom_to_leftBottom" to="leftBottom_to_leftTop" fromLane="0" toLane="0" via=":leftBottom_1_0" dir="r" state="M"/>
    <connection from="middleBottom_to_middleTop" to="middleTop_to_rightTop" fromLane="0" toLane="0" via=":middleTop_2_0" dir="r" state="m"/>
    <connection from="middleBottom_to_middleTop" to="middleTop_to_leftTop" fromLane="0" toLane="0" via=":middleTop_3_0" dir="l" state="m"/>
    <connection from="middleBottom_to_rightBottom" to="rightBottom_to_rightTop" fromLane="0" toLane="0" via=":rightBottom_1_0" dir="l" state="M"/>
    <connection from="middleTop_to_leftTop" to="leftTop_to_leftBottom" fromLane="0" toLane="0" via=":leftTop_0_0" dir="l" state="M"/>
    <connection from="middleTop_to_middleBottom" to="middleBottom_to_leftBottom" fromLane="0" toLane="0" via=":middleBottom_0_0" dir="r" state="="/>
    <connection from="middleTop_to_middleBottom" to="middleBottom_to_rightBottom" fromLane="0" toLane="0" via=":middleBottom_1_0" dir="l" state="="/>
    <connection from="middleTop_to_rightTop" to="rightTop_to_rightBottom" fromLane="0" toLane="0" via=":rightTop_1_0" dir="r" state="M"/>
    <connection from="rightBottom_to_middleBottom" to="middleBottom_to_middleTop" fromLane="0" toLane="0" via=":middleBottom_2_0" dir="r" state="="/>
    <connection from="rightBottom_to_middleBottom" to="middleBottom_to_leftBottom" fromLane="0" toLane="0" via=":middleBottom_3_0" dir="s" state="="/>
    <connection from="rightBottom_to_rightTop" to="rightTop_to_middleTop" fromLane="0" toLane="0" via=":rightTop_0_0" dir="l" state="M"/>
    <connection from="rightTop_to_middleTop" to="middleTop_to_leftTop" fromLane="0" toLane="0" via=":middleTop_0_0" dir="s" state="M"/>
    <connection from="rightTop_to_middleTop" to="middleTop_to_middleBottom" fromLane="0" toLane="0" via=":middleTop_1_0" dir="l" state="m"/>
    <connection from="rightTop_to_rightBottom" to="rightBottom_to_middleBottom" fromLane="0" toLane="0" via=":rightBottom_0_0" dir="r" state="M"/>

    <connection from=":leftBottom_0" to="leftBottom_to_middleBottom" fromLane="0" toLane="0" dir="l" state="M"/>
    <connection from=":leftBottom_1" to="leftBottom_to_leftTop" fromLane="0" toLane="0" dir="r" state="M"/>
    <connection from=":leftTop_0" to="leftTop_to_leftBottom" fromLane="0" toLane="0" dir="l" state="M"/>
    <connection from=":leftTop_1" to="leftTop_to_middleTop" fromLane="0" toLane="0" dir="r" state="M"/>
    <connection from=":middleBottom_0" to="middleBottom_to_leftBottom" fromLane="0" toLane="0" dir="r" state="M"/>
    <connection from=":middleBottom_1" to="middleBottom_to_rightBottom" fromLane="0" toLane="0" dir="l" state="M"/>
    <connection from=":middleBottom_2" to="middleBottom_to_middleTop" fromLane="0" toLane="0" dir="r" state="M"/>
    <connection from=":middleBottom_3" to="middleBottom_to_leftBottom" fromLane="0" toLane="0" dir="s" state="M"/>
    <connection from=":middleBottom_4" to="middleBottom_to_rightBottom" fromLane="0" toLane="0" dir="s" state="M"/>
    <connection from=":middleBottom_5" to="middleBottom_to_middleTop" fromLane="0" toLane="0" dir="l" state="M"/>
    <connection from=":middleTop_0" to="middleTop_to_leftTop" fromLane="0" toLane="0" dir="s" state="M"/>
    <connection from=":middleTop_1" to="middleTop_to_middleBottom" fromLane="0" toLane="0" via=":middleTop_6_0" dir="l" state="m"/>
    <connection from=":middleTop_6" to="middleTop_to_middleBottom" fromLane="0" toLane="0" dir="l" state="M"/>
    <connection from=":middleTop_2" to="middleTop_to_rightTop" fromLane="0" toLane="0" dir="r" state="M"/>
    <connection from=":middleTop_3" to="middleTop_to_leftTop" fromLane="0" toLane="0" dir="l" state="M"/>
    <connection from=":middleTop_4" to="middleTop_to_middleBottom" fromLane="0" toLane="0" dir="r" state="M"/>
    <connection from=":middleTop_5" to="middleTop_to_rightTop" fromLane="0" toLane="0" dir="s" state="M"/>
    <connection from=":rightBottom_0" to="rightBottom_to_middleBottom" fromLane="0" toLane="0" dir="r" state="M"/>
    <connection from=":rightBottom_1" to="rightBottom_to_rightTop" fromLane="0" toLane="0" dir="l" state="M"/>
    <connection from=":rightTop_0" to="rightTop_to_middleTop" fromLane="0" toLane="0" dir="l" state="M"/>
    <connection from=":rightTop_1" to="rightTop_to_rightBottom" fromLane="0" toLane="0" dir="r" state="M"/>

</net>
